
     RDKit          3D

 51 52  0  0  0  0  0  0  0  0999 V2000
   -6.5468    1.6557    3.3238 C   0  0  0  0  0  0  0  0  0  0  0  0
   -6.7778    1.3713    1.9169 N   0  0  0  0  0  0  0  0  0  0  0  0
   -7.1563    0.0058    1.5918 C   0  0  0  0  0  0  0  0  0  0  0  0
   -6.5575    2.3792    0.9820 C   0  0  0  0  0  0  0  0  0  0  0  0
   -6.3578    3.5494    1.3165 O   0  0  0  0  0  0  0  0  0  0  0  0
   -6.6256    2.0100   -0.5086 C   0  0  0  0  0  0  0  0  0  0  0  0
   -5.8874    0.8527   -0.8995 O   0  0  0  0  0  0  0  0  0  0  0  0
   -4.5302    1.0129   -0.9024 C   0  0  0  0  0  0  0  0  0  0  0  0
   -3.9533    2.0547   -0.6337 O   0  0  0  0  0  0  0  0  0  0  0  0
   -3.8837   -0.2981   -1.2964 C   0  0  0  0  0  0  0  0  0  0  0  0
   -2.3746   -0.2869   -1.2381 C   0  0  0  0  0  0  0  0  0  0  0  0
   -1.6199   -0.0230   -2.3921 C   0  0  0  0  0  0  0  0  0  0  0  0
   -0.2258   -0.0087   -2.3367 C   0  0  0  0  0  0  0  0  0  0  0  0
    0.4118   -0.2664   -1.1265 C   0  0  0  0  0  0  0  0  0  0  0  0
   -0.3170   -0.5012    0.0371 C   0  0  0  0  0  0  0  0  0  0  0  0
   -1.7108   -0.5166   -0.0221 C   0  0  0  0  0  0  0  0  0  0  0  0
    1.8078   -0.1876   -1.0938 O   0  0  0  0  0  0  0  0  0  0  0  0
    2.4519   -1.3813   -0.8279 C   0  0  0  0  0  0  0  0  0  0  0  0
    1.9395   -2.4742   -0.6372 O   0  0  0  0  0  0  0  0  0  0  0  0
    3.9257   -1.1605   -0.8041 C   0  0  0  0  0  0  0  0  0  0  0  0
    4.5058    0.1057   -0.9640 C   0  0  0  0  0  0  0  0  0  0  0  0
    5.8972    0.2488   -0.9314 C   0  0  0  0  0  0  0  0  0  0  0  0
    6.7225   -0.8596   -0.7297 C   0  0  0  0  0  0  0  0  0  0  0  0
    6.1449   -2.1229   -0.5846 C   0  0  0  0  0  0  0  0  0  0  0  0
    4.7555   -2.2746   -0.6145 C   0  0  0  0  0  0  0  0  0  0  0  0
    8.1125   -0.7009   -0.7201 N   0  0  0  0  0  0  0  0  0  0  0  0
    8.7364   -0.6484    0.4068 C   0  0  0  0  0  0  0  0  0  0  0  0
    8.2528   -0.7211    1.6694 N   0  0  0  0  0  0  0  0  0  0  0  0
   10.0807   -0.5068    0.4346 N   0  0  0  0  0  0  0  0  0  0  0  0
   -5.7803    0.9703    3.6979 H   0  0  0  0  0  0  0  0  0  0  0  0
   -7.4792    1.4940    3.8727 H   0  0  0  0  0  0  0  0  0  0  0  0
   -6.2107    2.6817    3.4931 H   0  0  0  0  0  0  0  0  0  0  0  0
   -6.2532   -0.6107    1.5729 H   0  0  0  0  0  0  0  0  0  0  0  0
   -7.8391   -0.3731    2.3584 H   0  0  0  0  0  0  0  0  0  0  0  0
   -7.6649   -0.0552    0.6282 H   0  0  0  0  0  0  0  0  0  0  0  0
   -6.3048    2.8723   -1.1064 H   0  0  0  0  0  0  0  0  0  0  0  0
   -7.6779    1.8362   -0.7597 H   0  0  0  0  0  0  0  0  0  0  0  0
   -4.2092   -0.5490   -2.3130 H   0  0  0  0  0  0  0  0  0  0  0  0
   -4.2565   -1.0842   -0.6282 H   0  0  0  0  0  0  0  0  0  0  0  0
   -2.1124    0.1793   -3.3405 H   0  0  0  0  0  0  0  0  0  0  0  0
    0.3543    0.2037   -3.2295 H   0  0  0  0  0  0  0  0  0  0  0  0
    0.1895   -0.6740    0.9815 H   0  0  0  0  0  0  0  0  0  0  0  0
   -2.2750   -0.7024    0.8890 H   0  0  0  0  0  0  0  0  0  0  0  0
    3.8968    0.9925   -1.1209 H   0  0  0  0  0  0  0  0  0  0  0  0
    6.3467    1.2292   -1.0697 H   0  0  0  0  0  0  0  0  0  0  0  0
    6.7838   -2.9920   -0.4500 H   0  0  0  0  0  0  0  0  0  0  0  0
    4.3261   -3.2681   -0.4971 H   0  0  0  0  0  0  0  0  0  0  0  0
    8.7217   -0.0757    2.2943 H   0  0  0  0  0  0  0  0  0  0  0  0
    7.2471   -0.6035    1.7203 H   0  0  0  0  0  0  0  0  0  0  0  0
   10.5192   -1.1561    1.0763 H   0  0  0  0  0  0  0  0  0  0  0  0
   10.4578   -0.6227   -0.5016 H   0  0  0  0  0  0  0  0  0  0  0  0
  1  2  1  0
  2  3  1  0
  2  4  1  0
  4  5  2  0
  4  6  1  0
  6  7  1  0
  7  8  1  0
  8  9  2  0
  8 10  1  0
 10 11  1  0
 11 12  2  0
 12 13  1  0
 13 14  2  0
 14 15  1  0
 15 16  2  0
 14 17  1  0
 17 18  1  0
 18 19  2  0
 18 20  1  0
 20 21  2  0
 21 22  1  0
 22 23  2  0
 23 24  1  0
 24 25  2  0
 23 26  1  0
 26 27  2  3
 27 28  1  0
 27 29  1  0
 16 11  1  0
 25 20  1  0
  1 30  1  0
  1 31  1  0
  1 32  1  0
  3 33  1  0
  3 34  1  0
  3 35  1  0
  6 36  1  0
  6 37  1  0
 10 38  1  0
 10 39  1  0
 12 40  1  0
 13 41  1  0
 15 42  1  0
 16 43  1  0
 21 44  1  0
 22 45  1  0
 24 46  1  0
 25 47  1  0
 28 48  1  0
 28 49  1  0
 29 50  1  0
 29 51  1  0
M  END
$$$$
