
     RDKit          3D

 43 45  0  0  0  0  0  0  0  0999 V2000
    2.9809    0.6878   -1.0180 C   0  0  0  0  0  0  0  0  0  0  0  0
    4.3412    0.9758   -1.1733 C   0  0  0  0  0  0  0  0  0  0  0  0
    5.3147    0.0880   -0.7105 C   0  0  0  0  0  0  0  0  0  0  0  0
    4.9164   -1.1084   -0.1098 C   0  0  0  0  0  0  0  0  0  0  0  0
    3.5594   -1.4031    0.0515 C   0  0  0  0  0  0  0  0  0  0  0  0
    2.5816   -0.5059   -0.4009 C   0  0  0  0  0  0  0  0  0  0  0  0
    1.1507   -0.8738   -0.2058 C   0  0  0  0  0  0  0  0  0  0  0  0
    0.7973   -1.9051    0.3461 O   0  0  0  0  0  0  0  0  0  0  0  0
    0.3389    0.1150   -0.7299 O   0  0  0  0  0  0  0  0  0  0  0  0
   -1.0302   -0.1430   -0.6117 C   0  0  0  0  0  0  0  0  0  0  0  0
   -1.7743    0.6514    0.2583 C   0  0  0  0  0  0  0  0  0  0  0  0
   -3.1593    0.4597    0.3676 C   0  0  0  0  0  0  0  0  0  0  0  0
   -3.7878   -0.5369   -0.4212 C   0  0  0  0  0  0  0  0  0  0  0  0
   -3.0137   -1.3089   -1.3052 C   0  0  0  0  0  0  0  0  0  0  0  0
   -1.6371   -1.1088   -1.4083 C   0  0  0  0  0  0  0  0  0  0  0  0
   -5.1738   -0.7312   -0.3087 C   0  0  0  0  0  0  0  0  0  0  0  0
   -5.9287    0.0535    0.5687 C   0  0  0  0  0  0  0  0  0  0  0  0
   -5.3121    1.0378    1.3432 C   0  0  0  0  0  0  0  0  0  0  0  0
   -3.9341    1.2377    1.2429 C   0  0  0  0  0  0  0  0  0  0  0  0
   -7.3939   -0.1556    0.6849 C   0  0  0  0  0  0  0  0  0  0  0  0
   -8.2267    0.8360    0.6987 N   0  0  0  0  0  0  0  0  0  0  0  0
   -7.9112   -1.4086    0.7800 N   0  0  0  0  0  0  0  0  0  0  0  0
    6.6695    0.3835   -0.8963 N   0  0  0  0  0  0  0  0  0  0  0  0
    7.3618    0.8381    0.0916 C   0  0  0  0  0  0  0  0  0  0  0  0
    8.6751    1.1163   -0.0685 N   0  0  0  0  0  0  0  0  0  0  0  0
    6.9846    1.1043    1.3644 N   0  0  0  0  0  0  0  0  0  0  0  0
    2.2536    1.4036   -1.3924 H   0  0  0  0  0  0  0  0  0  0  0  0
    4.6504    1.8950   -1.6651 H   0  0  0  0  0  0  0  0  0  0  0  0
    5.6699   -1.8139    0.2311 H   0  0  0  0  0  0  0  0  0  0  0  0
    3.2714   -2.3402    0.5250 H   0  0  0  0  0  0  0  0  0  0  0  0
   -1.2713    1.4121    0.8487 H   0  0  0  0  0  0  0  0  0  0  0  0
   -3.4784   -2.0750   -1.9220 H   0  0  0  0  0  0  0  0  0  0  0  0
   -1.0488   -1.7090   -2.0959 H   0  0  0  0  0  0  0  0  0  0  0  0
   -5.6662   -1.4795   -0.9236 H   0  0  0  0  0  0  0  0  0  0  0  0
   -5.8928    1.6339    2.0429 H   0  0  0  0  0  0  0  0  0  0  0  0
   -3.4676    2.0025    1.8605 H   0  0  0  0  0  0  0  0  0  0  0  0
   -7.7341    1.7287    0.5960 H   0  0  0  0  0  0  0  0  0  0  0  0
   -8.9116   -1.4401    0.6166 H   0  0  0  0  0  0  0  0  0  0  0  0
   -7.3908   -2.1965    0.4219 H   0  0  0  0  0  0  0  0  0  0  0  0
    8.9953    0.7601   -0.9645 H   0  0  0  0  0  0  0  0  0  0  0  0
    9.2393    0.7403    0.6839 H   0  0  0  0  0  0  0  0  0  0  0  0
    5.9788    1.1318    1.4872 H   0  0  0  0  0  0  0  0  0  0  0  0
    7.4138    1.9506    1.7201 H   0  0  0  0  0  0  0  0  0  0  0  0
  1  2  2  0
  2  3  1  0
  3  4  2  0
  4  5  1  0
  5  6  2  0
  6  7  1  0
  7  8  2  0
  7  9  1  0
  9 10  1  0
 10 11  2  0
 11 12  1  0
 12 13  2  0
 13 14  1  0
 14 15  2  0
 13 16  1  0
 16 17  2  0
 17 18  1  0
 18 19  2  0
 17 20  1  0
 20 21  2  3
 20 22  1  0
  3 23  1  0
 23 24  2  3
 24 25  1  0
 24 26  1  0
  6  1  1  0
 15 10  1  0
 19 12  1  0
  1 27  1  0
  2 28  1  0
  4 29  1  0
  5 30  1  0
 11 31  1  0
 14 32  1  0
 15 33  1  0
 16 34  1  0
 18 35  1  0
 19 36  1  0
 21 37  1  0
 22 38  1  0
 22 39  1  0
 25 40  1  0
 25 41  1  0
 26 42  1  0
 26 43  1  0
M  END
$$$$
