
     RDKit          3D

 73 77  0  0  0  0  0  0  0  0999 V2000
    9.3720   -1.2278   -1.9166 C   0  0  0  0  0  0  0  0  0  0  0  0
    8.0148   -1.6084   -1.5386 N   0  0  0  0  0  0  0  0  0  0  0  0
    7.0714   -0.5015   -1.7932 C   0  0  0  0  0  0  0  0  0  0  0  0
    5.7698   -0.6182   -0.9686 C   0  0  0  0  0  0  0  0  0  0  0  0
    5.9753   -0.6318    0.4988 N   0  0  0  0  0  0  0  0  0  0  0  0
    7.3530   -1.0443    0.8408 C   0  0  0  0  0  0  0  0  0  0  0  0
    7.9362   -2.0817   -0.1434 C   0  0  0  0  0  0  0  0  0  0  0  0
    5.6643    0.6687    1.1301 C   0  0  0  0  0  0  0  0  0  0  0  0
    4.1762    1.0477    0.9984 C   0  0  0  0  0  0  0  0  0  0  0  0
    3.9144    2.1569    0.5181 O   0  0  0  0  0  0  0  0  0  0  0  0
    3.2090    0.1332    1.4530 N   0  0  0  0  0  0  0  0  0  0  0  0
    3.5626   -0.9290    2.3971 C   0  0  0  0  0  0  0  0  0  0  0  0
    1.8209    0.2204    1.0468 C   0  0  0  0  0  0  0  0  0  0  0  0
    1.4119    1.0023   -0.0444 C   0  0  0  0  0  0  0  0  0  0  0  0
    0.0679    1.0721   -0.4385 C   0  0  0  0  0  0  0  0  0  0  0  0
   -0.9127    0.3695    0.2526 C   0  0  0  0  0  0  0  0  0  0  0  0
   -0.5240   -0.4531    1.3058 C   0  0  0  0  0  0  0  0  0  0  0  0
    0.8208   -0.5249    1.6977 C   0  0  0  0  0  0  0  0  0  0  0  0
   -2.2471    0.4451   -0.1616 N   0  0  0  0  0  0  0  0  0  0  0  0
   -3.1351    1.0960    0.5324 C   0  0  0  0  0  0  0  0  0  0  0  0
   -2.8629    1.8552    1.7799 C   0  0  0  0  0  0  0  0  0  0  0  0
   -3.4718    1.4569    2.9753 C   0  0  0  0  0  0  0  0  0  0  0  0
   -3.2402    2.1849    4.1421 C   0  0  0  0  0  0  0  0  0  0  0  0
   -2.4049    3.3030    4.1132 C   0  0  0  0  0  0  0  0  0  0  0  0
   -1.7989    3.6987    2.9196 C   0  0  0  0  0  0  0  0  0  0  0  0
   -2.0286    2.9777    1.7484 C   0  0  0  0  0  0  0  0  0  0  0  0
   -4.5183    1.0567    0.0363 C   0  0  0  0  0  0  0  0  0  0  0  0
   -5.5259    1.9895    0.2584 C   0  0  0  0  0  0  0  0  0  0  0  0
   -6.6583    1.5542   -0.3728 N   0  0  0  0  0  0  0  0  0  0  0  0
   -6.4370    0.3684   -1.0223 C   0  0  0  0  0  0  0  0  0  0  0  0
   -5.1044    0.0281   -0.7950 C   0  0  0  0  0  0  0  0  0  0  0  0
   -4.6262   -1.1731   -1.3645 C   0  0  0  0  0  0  0  0  0  0  0  0
   -5.4818   -1.9740   -2.1332 C   0  0  0  0  0  0  0  0  0  0  0  0
   -6.8128   -1.6036   -2.3463 C   0  0  0  0  0  0  0  0  0  0  0  0
   -7.3128   -0.4162   -1.7878 C   0  0  0  0  0  0  0  0  0  0  0  0
   -7.6637   -2.5051   -3.1730 C   0  0  0  0  0  0  0  0  0  0  0  0
   -7.2697   -3.5566   -3.6530 O   0  0  0  0  0  0  0  0  0  0  0  0
   -8.9141   -1.9943   -3.3092 O   0  0  0  0  0  0  0  0  0  0  0  0
   -9.7877   -2.8053   -4.0957 C   0  0  0  0  0  0  0  0  0  0  0  0
   -5.5993    3.1471    0.9051 O   0  0  0  0  0  0  0  0  0  0  0  0
    9.4052   -0.9087   -2.9642 H   0  0  0  0  0  0  0  0  0  0  0  0
    9.7615   -0.4143   -1.2942 H   0  0  0  0  0  0  0  0  0  0  0  0
   10.0495   -2.0843   -1.8283 H   0  0  0  0  0  0  0  0  0  0  0  0
    6.8193   -0.4944   -2.8600 H   0  0  0  0  0  0  0  0  0  0  0  0
    7.5333    0.4690   -1.5649 H   0  0  0  0  0  0  0  0  0  0  0  0
    5.2745   -1.5611   -1.2354 H   0  0  0  0  0  0  0  0  0  0  0  0
    5.0776    0.1722   -1.2810 H   0  0  0  0  0  0  0  0  0  0  0  0
    8.0281   -0.1777    0.8638 H   0  0  0  0  0  0  0  0  0  0  0  0
    7.3476   -1.4735    1.8495 H   0  0  0  0  0  0  0  0  0  0  0  0
    7.2926   -2.9711   -0.1318 H   0  0  0  0  0  0  0  0  0  0  0  0
    8.9138   -2.4223    0.2201 H   0  0  0  0  0  0  0  0  0  0  0  0
    5.9167    0.6717    2.1971 H   0  0  0  0  0  0  0  0  0  0  0  0
    6.2605    1.4647    0.6644 H   0  0  0  0  0  0  0  0  0  0  0  0
    3.0084   -0.7818    3.3299 H   0  0  0  0  0  0  0  0  0  0  0  0
    3.3224   -1.9017    1.9560 H   0  0  0  0  0  0  0  0  0  0  0  0
    4.6143   -0.9320    2.6800 H   0  0  0  0  0  0  0  0  0  0  0  0
    2.1218    1.5600   -0.6469 H   0  0  0  0  0  0  0  0  0  0  0  0
   -0.2093    1.6793   -1.2960 H   0  0  0  0  0  0  0  0  0  0  0  0
   -1.2687   -1.0458    1.8296 H   0  0  0  0  0  0  0  0  0  0  0  0
    1.0440   -1.1796    2.5332 H   0  0  0  0  0  0  0  0  0  0  0  0
   -4.1227    0.5861    3.0012 H   0  0  0  0  0  0  0  0  0  0  0  0
   -3.7085    1.8806    5.0751 H   0  0  0  0  0  0  0  0  0  0  0  0
   -2.2213    3.8660    5.0257 H   0  0  0  0  0  0  0  0  0  0  0  0
   -1.1427    4.5659    2.9036 H   0  0  0  0  0  0  0  0  0  0  0  0
   -1.5565    3.2910    0.8204 H   0  0  0  0  0  0  0  0  0  0  0  0
   -7.5313    2.0604   -0.3636 H   0  0  0  0  0  0  0  0  0  0  0  0
   -3.5937   -1.4802   -1.2161 H   0  0  0  0  0  0  0  0  0  0  0  0
   -5.0914   -2.8934   -2.5667 H   0  0  0  0  0  0  0  0  0  0  0  0
   -8.3420   -0.1060   -1.9374 H   0  0  0  0  0  0  0  0  0  0  0  0
   -9.9239   -3.7862   -3.6296 H   0  0  0  0  0  0  0  0  0  0  0  0
  -10.7601   -2.3073   -4.1438 H   0  0  0  0  0  0  0  0  0  0  0  0
   -9.4014   -2.9092   -5.1145 H   0  0  0  0  0  0  0  0  0  0  0  0
   -4.7200    3.3802    1.2498 H   0  0  0  0  0  0  0  0  0  0  0  0
  1  2  1  0
  2  3  1  0
  3  4  1  0
  4  5  1  0
  5  6  1  0
  6  7  1  0
  5  8  1  0
  8  9  1  0
  9 10  2  0
  9 11  1  0
 11 12  1  0
 11 13  1  0
 13 14  2  0
 14 15  1  0
 15 16  2  0
 16 17  1  0
 17 18  2  0
 16 19  1  0
 19 20  2  3
 20 21  1  0
 21 22  2  0
 22 23  1  0
 23 24  2  0
 24 25  1  0
 25 26  2  0
 20 27  1  0
 27 28  2  0
 28 29  1  0
 29 30  1  0
 30 31  2  0
 31 32  1  0
 32 33  2  0
 33 34  1  0
 34 35  2  0
 34 36  1  0
 36 37  2  0
 36 38  1  0
 38 39  1  0
 28 40  1  0
  7  2  1  0
 18 13  1  0
 26 21  1  0
 31 27  1  0
 35 30  1  0
  1 41  1  0
  1 42  1  0
  1 43  1  0
  3 44  1  0
  3 45  1  0
  4 46  1  0
  4 47  1  0
  6 48  1  0
  6 49  1  0
  7 50  1  0
  7 51  1  0
  8 52  1  0
  8 53  1  0
 12 54  1  0
 12 55  1  0
 12 56  1  0
 14 57  1  0
 15 58  1  0
 17 59  1  0
 18 60  1  0
 22 61  1  0
 23 62  1  0
 24 63  1  0
 25 64  1  0
 26 65  1  0
 29 66  1  0
 32 67  1  0
 33 68  1  0
 35 69  1  0
 39 70  1  0
 39 71  1  0
 39 72  1  0
 40 73  1  0
M  END
$$$$
