
     RDKit          3D

 25 26  0  0  0  0  0  0  0  0999 V2000
    3.5500   -1.2978    0.1435 C   0  0  0  0  0  0  0  0  0  0  0  0
    2.4798   -0.2586    0.0013 C   0  0  0  0  0  0  0  0  0  0  0  0
    1.1688   -0.5408    0.0553 C   0  0  0  0  0  0  0  0  0  0  0  0
    0.1701    0.4318   -0.0594 N   0  0  0  0  0  0  0  0  0  0  0  0
    0.5313    1.7865   -0.2474 C   0  0  0  0  0  0  0  0  0  0  0  0
   -0.2225    2.7448   -0.4127 O   0  0  0  0  0  0  0  0  0  0  0  0
    1.9920    2.0818   -0.2912 C   0  0  0  0  0  0  0  0  0  0  0  0
    2.8989    1.1073   -0.1821 C   0  0  0  0  0  0  0  0  0  0  0  0
   -1.2301    0.0604   -0.0001 C   0  0  0  0  0  0  0  0  0  0  0  0
   -2.2135    0.9457    0.4684 C   0  0  0  0  0  0  0  0  0  0  0  0
   -3.5609    0.5710    0.5379 C   0  0  0  0  0  0  0  0  0  0  0  0
   -3.9556   -0.7007    0.1390 C   0  0  0  0  0  0  0  0  0  0  0  0
   -3.0031   -1.5975   -0.3304 C   0  0  0  0  0  0  0  0  0  0  0  0
   -1.6562   -1.2210   -0.3974 C   0  0  0  0  0  0  0  0  0  0  0  0
    4.1873   -1.0791    1.0070 H   0  0  0  0  0  0  0  0  0  0  0  0
    3.1300   -2.2992    0.2869 H   0  0  0  0  0  0  0  0  0  0  0  0
    4.1783   -1.3279   -0.7532 H   0  0  0  0  0  0  0  0  0  0  0  0
    0.8504   -1.5615    0.2366 H   0  0  0  0  0  0  0  0  0  0  0  0
    2.2667    3.1198   -0.4295 H   0  0  0  0  0  0  0  0  0  0  0  0
    3.9592    1.3363   -0.2238 H   0  0  0  0  0  0  0  0  0  0  0  0
   -1.9561    1.9399    0.8235 H   0  0  0  0  0  0  0  0  0  0  0  0
   -4.2972    1.2797    0.9087 H   0  0  0  0  0  0  0  0  0  0  0  0
   -5.0021   -0.9889    0.1899 H   0  0  0  0  0  0  0  0  0  0  0  0
   -3.3055   -2.5892   -0.6568 H   0  0  0  0  0  0  0  0  0  0  0  0
   -0.9602   -1.9429   -0.8140 H   0  0  0  0  0  0  0  0  0  0  0  0
  1  2  1  0
  2  3  2  0
  3  4  1  0
  4  5  1  0
  5  6  2  0
  5  7  1  0
  7  8  2  0
  4  9  1  0
  9 10  2  0
 10 11  1  0
 11 12  2  0
 12 13  1  0
 13 14  2  0
  8  2  1  0
 14  9  1  0
  1 15  1  0
  1 16  1  0
  1 17  1  0
  3 18  1  0
  7 19  1  0
  8 20  1  0
 10 21  1  0
 11 22  1  0
 12 23  1  0
 13 24  1  0
 14 25  1  0
M  END
$$$$
